ver_1.2
     RDKit          2D

  1  0  0  0  0  0  0  0  0  0999 V2000
    0.0000    0.0000    0.0000 C   0  0  0  0  0  0  0  0  0  0  0  0
M  END
>  <submitter_name>  (1) 
spf57946

>  <submitter_email>  (1) 
boris.kovar@m2ms.sk

>  <submitter_institution>  (1) 
Diamond Light Source

>  <generation_date>  (1) 
2023-07-21

>  <method>  (1) 
sq2-instance-301edd2a-74c8-4599-8eb6-7fd5524b4126

>  <ref_url>  (1) 
https://data-manager-ui.xchem.diamond.ac.uk/data-manager-ui/data-manager-ui/results/instance/instance-301edd2a-74c8-4599-8eb6-7fd5524b4126

>  <IDX>  (1)
Molecule index

>  <DDG>  (1)
Delta deta G

>  <RMSD>  (1)
RMSD from input fragments

>  <ref_mols>  (1)
Input IDs

>  <original SMILES>  (1)
Molecule SMILES

>  <ref_pdb>  (1)
PDB file used

$$$$
nmntdazzefpljuyc-1
     RDKit          3D

 20 21  0  0  0  0  0  0  0  0999 V2000
    1.9907    5.3426  -10.2107 O   0  0  0  0  0  0  0  0  0  0  0  0
    1.2470    4.3420  -10.0184 C   0  0  0  0  0  0  0  0  0  0  0  0
    1.3137    3.2169  -10.9088 N   0  0  0  0  0  0  0  0  0  0  0  0
   -3.2481    2.4383  -11.7882 C   0  0  0  0  0  0  0  0  0  0  0  0
   -2.5174    2.5417  -10.4886 C   0  0  0  0  0  0  0  0  0  0  0  0
   -2.7048    1.6586   -9.6088 O   0  0  0  0  0  0  0  0  0  0  0  0
   -1.5701    3.5990  -10.2694 N   0  0  0  0  0  0  0  0  0  0  0  0
    2.1520    5.1218   -7.4385 O   0  0  0  0  0  0  0  0  0  0  0  0
    1.6139    4.1396  -13.1964 C   0  0  0  0  0  0  0  0  0  0  0  0
    0.8803    3.3720  -14.3074 C   0  0  0  0  0  0  0  0  0  0  0  0
    0.1705    2.1389  -13.7390 C   0  0  0  0  0  0  0  0  0  0  0  0
    1.0993    1.1830  -13.1022 N   0  0  0  0  0  0  0  0  0  0  0  0
    2.3643    1.7759  -12.6247 C   0  0  0  0  0  0  0  0  0  0  0  0
    2.1820    3.2116  -12.0937 C   0  0  2  0  0  0  0  0  0  0  0  0
    0.8245    4.7172   -7.5857 C   0  0  0  0  0  0  0  0  0  0  0  0
   -0.0171    4.6852   -6.4670 C   0  0  0  0  0  0  0  0  0  0  0  0
   -1.3410    4.2714   -6.5943 C   0  0  0  0  0  0  0  0  0  0  0  0
   -1.8386    3.8909   -7.8397 C   0  0  0  0  0  0  0  0  0  0  0  0
   -1.0124    3.9059   -8.9778 C   0  0  0  0  0  0  0  0  0  0  0  0
    0.3357    4.3264   -8.8509 C   0  0  0  0  0  0  0  0  0  0  0  0
  2  1  2  0
  3  2  1  0
  5  4  1  0
  6  5  2  0
  7  5  1  0
  9 14  1  0
  9 10  1  0
 10 11  1  0
 11 12  1  0
 12 13  1  0
 13 14  1  0
 14  3  1  1
 15 20  2  0
 15 16  1  0
 16 17  2  0
 17 18  1  0
 18 19  2  0
 19 20  1  0
 20  2  1  0
  7 19  1  0
  8 15  1  0
M  END
>  <IDX>  (1) 
1

>  <DDG>  (1) 
31.33276473008943

>  <RMSD>  (1) 
1.2951220364007752

>  <original SMILES>  (1) 
CC(=O)Nc1cccc(O)c1C(=O)N[C@@H]1CCCNC1

>  <ref_mols>  (1) 
x0017_0A,x0049_0A

>  <ref_pdb>  (1) 
x0077_0A

$$$$
nmntdazzefpljuyc-2
     RDKit          3D

 20 21  0  0  0  0  0  0  0  0999 V2000
    1.9907    5.3426  -10.2107 O   0  0  0  0  0  0  0  0  0  0  0  0
    1.2470    4.3420  -10.0184 C   0  0  0  0  0  0  0  0  0  0  0  0
    1.3137    3.2169  -10.9088 N   0  0  0  0  0  0  0  0  0  0  0  0
   -3.2481    2.4383  -11.7882 C   0  0  0  0  0  0  0  0  0  0  0  0
   -2.5174    2.5417  -10.4886 C   0  0  0  0  0  0  0  0  0  0  0  0
   -2.7048    1.6586   -9.6088 O   0  0  0  0  0  0  0  0  0  0  0  0
   -1.5701    3.5990  -10.2694 N   0  0  0  0  0  0  0  0  0  0  0  0
    2.1520    5.1218   -7.4385 O   0  0  0  0  0  0  0  0  0  0  0  0
    1.6139    4.1396  -13.1964 C   0  0  0  0  0  0  0  0  0  0  0  0
    0.8803    3.3720  -14.3074 C   0  0  0  0  0  0  0  0  0  0  0  0
    0.1705    2.1389  -13.7390 C   0  0  0  0  0  0  0  0  0  0  0  0
    1.0993    1.1830  -13.1022 N   0  0  0  0  0  0  0  0  0  0  0  0
    2.3643    1.7759  -12.6247 C   0  0  0  0  0  0  0  0  0  0  0  0
    2.1820    3.2116  -12.0937 C   0  0  2  0  0  0  0  0  0  0  0  0
    0.8245    4.7172   -7.5857 C   0  0  0  0  0  0  0  0  0  0  0  0
   -0.0171    4.6852   -6.4670 C   0  0  0  0  0  0  0  0  0  0  0  0
   -1.3410    4.2714   -6.5943 C   0  0  0  0  0  0  0  0  0  0  0  0
   -1.8386    3.8909   -7.8397 C   0  0  0  0  0  0  0  0  0  0  0  0
   -1.0124    3.9059   -8.9778 C   0  0  0  0  0  0  0  0  0  0  0  0
    0.3357    4.3264   -8.8509 C   0  0  0  0  0  0  0  0  0  0  0  0
  2  1  2  0
  3  2  1  0
  5  4  1  0
  6  5  2  0
  7  5  1  0
  9 14  1  0
  9 10  1  0
 10 11  1  0
 11 12  1  0
 12 13  1  0
 13 14  1  0
 14  3  1  1
 15 20  2  0
 15 16  1  0
 16 17  2  0
 17 18  1  0
 18 19  2  0
 19 20  1  0
 20  2  1  0
  7 19  1  0
  8 15  1  0
M  END
>  <IDX>  (2) 
2

>  <DDG>  (2) 
31.33276473008943

>  <RMSD>  (2) 
1.2951220364007752

>  <original SMILES>  (2) 
CC(=O)Nc1cccc(O)c1C(=O)N[C@@H]1CCCNC1

>  <ref_mols>  (2) 
x0017_0A,x0049_0A

>  <ref_pdb>  (2) 
x0077_0A

$$$$
nmntdazzefpljuyc-3
     RDKit          3D

 20 21  0  0  0  0  0  0  0  0999 V2000
    1.9907    5.3426  -10.2107 O   0  0  0  0  0  0  0  0  0  0  0  0
    1.2470    4.3420  -10.0184 C   0  0  0  0  0  0  0  0  0  0  0  0
    1.3137    3.2169  -10.9088 N   0  0  0  0  0  0  0  0  0  0  0  0
   -3.2481    2.4383  -11.7882 C   0  0  0  0  0  0  0  0  0  0  0  0
   -2.5174    2.5417  -10.4886 C   0  0  0  0  0  0  0  0  0  0  0  0
   -2.7048    1.6586   -9.6088 O   0  0  0  0  0  0  0  0  0  0  0  0
   -1.5701    3.5990  -10.2694 N   0  0  0  0  0  0  0  0  0  0  0  0
    2.1520    5.1218   -7.4385 O   0  0  0  0  0  0  0  0  0  0  0  0
    1.6139    4.1396  -13.1964 C   0  0  0  0  0  0  0  0  0  0  0  0
    0.8803    3.3720  -14.3074 C   0  0  0  0  0  0  0  0  0  0  0  0
    0.1705    2.1389  -13.7390 C   0  0  0  0  0  0  0  0  0  0  0  0
    1.0993    1.1830  -13.1022 N   0  0  0  0  0  0  0  0  0  0  0  0
    2.3643    1.7759  -12.6247 C   0  0  0  0  0  0  0  0  0  0  0  0
    2.1820    3.2116  -12.0937 C   0  0  2  0  0  0  0  0  0  0  0  0
    0.8245    4.7172   -7.5857 C   0  0  0  0  0  0  0  0  0  0  0  0
   -0.0171    4.6852   -6.4670 C   0  0  0  0  0  0  0  0  0  0  0  0
   -1.3410    4.2714   -6.5943 C   0  0  0  0  0  0  0  0  0  0  0  0
   -1.8386    3.8909   -7.8397 C   0  0  0  0  0  0  0  0  0  0  0  0
   -1.0124    3.9059   -8.9778 C   0  0  0  0  0  0  0  0  0  0  0  0
    0.3357    4.3264   -8.8509 C   0  0  0  0  0  0  0  0  0  0  0  0
  2  1  2  0
  3  2  1  0
  5  4  1  0
  6  5  2  0
  7  5  1  0
  9 14  1  0
  9 10  1  0
 10 11  1  0
 11 12  1  0
 12 13  1  0
 13 14  1  0
 14  3  1  1
 15 20  2  0
 15 16  1  0
 16 17  2  0
 17 18  1  0
 18 19  2  0
 19 20  1  0
 20  2  1  0
  7 19  1  0
  8 15  1  0
M  END
>  <IDX>  (3) 
3

>  <DDG>  (3) 
31.33276473008943

>  <RMSD>  (3) 
1.2951220364007752

>  <original SMILES>  (3) 
CC(=O)Nc1cccc(O)c1C(=O)N[C@@H]1CCCNC1

>  <ref_mols>  (3) 
x0017_0A,x0049_0A

>  <ref_pdb>  (3) 
x0077_0A

$$$$
nmntdazzefpljuyc-4
     RDKit          3D

 20 21  0  0  0  0  0  0  0  0999 V2000
    1.9907    5.3426  -10.2107 O   0  0  0  0  0  0  0  0  0  0  0  0
    1.2470    4.3420  -10.0184 C   0  0  0  0  0  0  0  0  0  0  0  0
    1.3137    3.2169  -10.9088 N   0  0  0  0  0  0  0  0  0  0  0  0
   -3.2481    2.4383  -11.7882 C   0  0  0  0  0  0  0  0  0  0  0  0
   -2.5174    2.5417  -10.4886 C   0  0  0  0  0  0  0  0  0  0  0  0
   -2.7048    1.6586   -9.6088 O   0  0  0  0  0  0  0  0  0  0  0  0
   -1.5701    3.5990  -10.2694 N   0  0  0  0  0  0  0  0  0  0  0  0
    2.1520    5.1218   -7.4385 O   0  0  0  0  0  0  0  0  0  0  0  0
    1.6139    4.1396  -13.1964 C   0  0  0  0  0  0  0  0  0  0  0  0
    0.8803    3.3720  -14.3074 C   0  0  0  0  0  0  0  0  0  0  0  0
    0.1705    2.1389  -13.7390 C   0  0  0  0  0  0  0  0  0  0  0  0
    1.0993    1.1830  -13.1022 N   0  0  0  0  0  0  0  0  0  0  0  0
    2.3643    1.7759  -12.6247 C   0  0  0  0  0  0  0  0  0  0  0  0
    2.1820    3.2116  -12.0937 C   0  0  2  0  0  0  0  0  0  0  0  0
    0.8245    4.7172   -7.5857 C   0  0  0  0  0  0  0  0  0  0  0  0
   -0.0171    4.6852   -6.4670 C   0  0  0  0  0  0  0  0  0  0  0  0
   -1.3410    4.2714   -6.5943 C   0  0  0  0  0  0  0  0  0  0  0  0
   -1.8386    3.8909   -7.8397 C   0  0  0  0  0  0  0  0  0  0  0  0
   -1.0124    3.9059   -8.9778 C   0  0  0  0  0  0  0  0  0  0  0  0
    0.3357    4.3264   -8.8509 C   0  0  0  0  0  0  0  0  0  0  0  0
  2  1  2  0
  3  2  1  0
  5  4  1  0
  6  5  2  0
  7  5  1  0
  9 14  1  0
  9 10  1  0
 10 11  1  0
 11 12  1  0
 12 13  1  0
 13 14  1  0
 14  3  1  1
 15 20  2  0
 15 16  1  0
 16 17  2  0
 17 18  1  0
 18 19  2  0
 19 20  1  0
 20  2  1  0
  7 19  1  0
  8 15  1  0
M  END
>  <IDX>  (4) 
4

>  <DDG>  (4) 
31.33276473008943

>  <RMSD>  (4) 
1.2951220364007752

>  <original SMILES>  (4) 
CC(=O)Nc1cccc(O)c1C(=O)N[C@@H]1CCCNC1

>  <ref_mols>  (4) 
x0017_0A,x0049_0A

>  <ref_pdb>  (4) 
x0077_0A

$$$$
nmntdazzefpljuyc-5
     RDKit          3D

 20 21  0  0  0  0  0  0  0  0999 V2000
    1.9907    5.3426  -10.2107 O   0  0  0  0  0  0  0  0  0  0  0  0
    1.2470    4.3420  -10.0184 C   0  0  0  0  0  0  0  0  0  0  0  0
    1.3137    3.2169  -10.9088 N   0  0  0  0  0  0  0  0  0  0  0  0
   -3.2481    2.4383  -11.7882 C   0  0  0  0  0  0  0  0  0  0  0  0
   -2.5174    2.5417  -10.4886 C   0  0  0  0  0  0  0  0  0  0  0  0
   -2.7048    1.6586   -9.6088 O   0  0  0  0  0  0  0  0  0  0  0  0
   -1.5701    3.5990  -10.2694 N   0  0  0  0  0  0  0  0  0  0  0  0
    2.1520    5.1218   -7.4385 O   0  0  0  0  0  0  0  0  0  0  0  0
    1.6139    4.1396  -13.1964 C   0  0  0  0  0  0  0  0  0  0  0  0
    0.8803    3.3720  -14.3074 C   0  0  0  0  0  0  0  0  0  0  0  0
    0.1705    2.1389  -13.7390 C   0  0  0  0  0  0  0  0  0  0  0  0
    1.0993    1.1830  -13.1022 N   0  0  0  0  0  0  0  0  0  0  0  0
    2.3643    1.7759  -12.6247 C   0  0  0  0  0  0  0  0  0  0  0  0
    2.1820    3.2116  -12.0937 C   0  0  2  0  0  0  0  0  0  0  0  0
    0.8245    4.7172   -7.5857 C   0  0  0  0  0  0  0  0  0  0  0  0
   -0.0171    4.6852   -6.4670 C   0  0  0  0  0  0  0  0  0  0  0  0
   -1.3410    4.2714   -6.5943 C   0  0  0  0  0  0  0  0  0  0  0  0
   -1.8386    3.8909   -7.8397 C   0  0  0  0  0  0  0  0  0  0  0  0
   -1.0124    3.9059   -8.9778 C   0  0  0  0  0  0  0  0  0  0  0  0
    0.3357    4.3264   -8.8509 C   0  0  0  0  0  0  0  0  0  0  0  0
  2  1  2  0
  3  2  1  0
  5  4  1  0
  6  5  2  0
  7  5  1  0
  9 14  1  0
  9 10  1  0
 10 11  1  0
 11 12  1  0
 12 13  1  0
 13 14  1  0
 14  3  1  1
 15 20  2  0
 15 16  1  0
 16 17  2  0
 17 18  1  0
 18 19  2  0
 19 20  1  0
 20  2  1  0
  7 19  1  0
  8 15  1  0
M  END
>  <IDX>  (5) 
5

>  <DDG>  (5) 
31.33276473008943

>  <RMSD>  (5) 
1.2951220364007752

>  <original SMILES>  (5) 
CC(=O)Nc1cccc(O)c1C(=O)N[C@@H]1CCCNC1

>  <ref_mols>  (5) 
x0017_0A,x0049_0A

>  <ref_pdb>  (5) 
x0077_0A

$$$$
