ver_1.2
     RDKit          2D

  1  0  0  0  0  0  0  0  0  0999 V2000
    0.0000    0.0000    0.0000 C   0  0  0  0  0  0  0  0  0  0  0  0
M  END
>  <submitter_name>  (1) 
Jenke Scheen

>  <submitter_email>  (1) 
jenke.scheen@choderalab.org

>  <submitter_institution>  (1) 
ASAP / MSKCC

>  <method>  (1) 
TEST FRAGALYSIS UPLOAD 1 (POSIT Docking)

>  <ref_url>  (1) 
https://github.com/choderalab/covid-moonshot-ml

>  <original SMILES>  (1) 
The SMILES of the compound

>  <ref_pdb>  (1) 
A pdb included in fragalysis or uploaded. E.g. x0830_0

>  <ref_mols>  (1) 
The inspirational fragments usded to propose the compound

>  <generation_date>  (1) 
2022-12-16

>  <ddG_score>  (1) 
Score ddG_score

>  <test_score>  (1) 
testing custom score input

$$$$
1_Mpro-P2660_0A
     RDKit          3D

 44 50  0  0  1  0  0  0  0  0999 V2000
   -3.8128    1.8477  -20.5358 C   0  0  0  0  0  0  0  0  0  0  0  0
   -4.6029    1.4233  -21.6016 C   0  0  0  0  0  0  0  0  0  0  0  0
   -4.1028    1.4236  -19.2393 C   0  0  0  0  0  0  0  0  0  0  0  0
   -5.6866    0.5729  -21.3756 C   0  0  0  0  0  0  0  0  0  0  0  0
  -13.1537   -0.2230  -23.4419 C   0  0  0  0  0  0  0  0  0  0  0  0
  -13.9500   -1.2024  -22.8570 C   0  0  0  0  0  0  0  0  0  0  0  0
  -11.9648   -2.3179  -22.0485 C   0  0  0  0  0  0  0  0  0  0  0  0
   -5.5261    0.1127  -17.7234 C   0  0  0  0  0  0  0  0  0  0  0  0
   -7.3098   -1.1034  -18.5072 C   0  0  0  0  0  0  0  0  0  0  0  0
   -5.1908    0.5677  -19.0002 C   0  0  0  0  0  0  0  0  0  0  0  0
   -5.9931    0.1359  -20.0765 C   0  0  0  0  0  0  0  0  0  0  0  0
  -11.7560   -0.2938  -23.3371 C   0  0  0  0  0  0  0  0  0  0  0  0
  -11.1339   -1.3549  -22.6451 C   0  0  0  0  0  0  0  0  0  0  0  0
   -7.0725   -0.7167  -19.8174 C   0  0  0  0  0  0  0  0  0  0  0  0
  -13.3565   -2.2459  -22.1581 C   0  0  0  0  0  0  0  0  0  0  0  0
  -10.9537    0.8041  -23.9421 C   0  0  0  0  0  0  0  0  0  0  0  0
   -8.8814   -0.7416  -27.5631 C   0  0  0  0  0  0  0  0  0  0  0  0
   -9.1213   -0.5913  -21.3102 C   0  0  0  0  0  0  0  0  0  0  0  0
   -7.3641    2.0624  -26.6741 C   0  0  0  0  0  0  0  0  0  0  0  0
  -10.0009   -0.0791  -28.3341 C   0  0  0  0  0  0  0  0  0  0  0  0
   -9.9282    1.4364  -28.3270 C   0  0  0  0  0  0  0  0  0  0  0  0
   -4.3632    5.6797  -24.2603 C   0  0  0  0  0  0  0  0  0  0  0  0
   -5.7358    4.9857  -24.3804 C   0  0  0  0  0  0  0  0  0  0  0  0
   -4.2747    5.6142  -25.7991 C   0  0  0  0  0  0  0  0  0  0  0  0
   -9.8310    1.9462  -26.8951 C   0  0  0  0  0  0  0  0  0  0  0  0
   -7.6389   -2.4135  -21.5869 C   0  0  0  0  0  0  0  0  0  0  0  0
   -9.0220   -0.7481  -23.8055 C   0  0  0  0  0  0  0  0  0  0  0  0
   -5.2395    4.4021  -25.7290 C   0  0  0  0  0  0  0  0  0  0  0  0
   -8.9674   -2.7751  -22.2417 C   0  0  0  0  0  0  0  0  0  0  0  0
   -9.6145   -1.3914  -22.5323 C   0  0  0  0  0  0  0  0  0  0  0  0
   -8.6062    1.3639  -26.1831 C   0  0  0  0  0  0  0  0  0  0  0  0
   -8.7937   -3.7095  -23.4319 C   0  0  0  0  0  0  0  0  0  0  0  0
   -6.2652    4.2869  -26.8373 C   0  0  0  0  0  0  0  0  0  0  0  0
   -8.7128    1.5645  -24.6711 C   0  0  0  0  0  0  0  0  0  0  0  0
   -6.5640   -0.7105  -17.4527 N   0  0  0  0  0  0  0  0  0  0  0  0
   -8.3762   -0.0456  -26.4873 N   0  0  0  0  0  0  0  0  0  0  0  0
   -7.9361   -1.2027  -20.8460 N   0  0  0  0  0  0  0  0  0  0  0  0
   -9.5875    0.5694  -24.0700 N   0  0  0  0  0  0  0  0  0  0  0  0
   -7.3588    3.4256  -26.4483 N   0  0  0  0  0  0  0  0  0  0  0  0
  -11.5173    1.8426  -24.2793 O   0  0  0  0  0  0  0  0  0  0  0  0
   -8.5135   -1.8836  -27.8436 O   0  0  0  0  0  0  0  0  0  0  0  0
   -9.6742    0.4207  -20.9001 O   0  0  0  0  0  0  0  0  0  0  0  0
   -6.4785    1.4109  -27.2152 O   0  0  0  0  0  0  0  0  0  0  0  0
  -14.1191   -3.1916  -21.5900 F   0  0  0  0  0  0  0  0  0  0  0  0
  1  2  2  0
  1  3  1  0
  2  4  1  0
  3 10  2  0
  4 11  2  0
  5  6  2  0
  5 12  1  0
  6 15  1  0
  7 13  1  0
  7 15  2  0
  8 10  1  0
  8 35  2  0
  9 14  2  0
  9 35  1  0
 10 11  1  0
 11 14  1  0
 12 13  2  0
 12 16  1  0
 13 30  1  0
 14 37  1  0
 15 44  1  0
 16 38  1  0
 16 40  2  0
 17 20  1  0
 17 36  1  0
 17 41  2  0
 18 30  1  0
 18 37  1  0
 18 42  2  0
 19 31  1  0
 19 39  1  0
 19 43  2  0
 20 21  1  0
 21 25  1  0
 22 23  1  0
 22 24  1  0
 23 28  1  0
 24 28  1  0
 25 31  1  0
 26 29  1  0
 26 37  1  0
 27 30  1  0
 27 38  1  0
 28 33  1  0
 29 30  1  0
 29 32  1  0
 31 34  1  0
 31 36  1  0
 33 39  1  0
 34 38  1  0
M  END
>  <smiles>  (2) 
C[C@H]1CN(c2cncc3ccccc23)C(=O)[C@@]12CN(C[C@]1(C(=O)NCC3CCC3)CCCC(=O)N1)C(=O)c1ccc(F)cc12

>  <original SMILES>  (2) 
C[C@H]1CN(c2cncc3ccccc23)C(=O)[C@@]12CN(C[C@]1(C(=O)NCC3CCC3)CCCC(=O)N1)C(=O)c1ccc(F)cc12

>  <ref_pdb>
Mpro-P2660_0A.pdb

>  <ref_mols>
P2660_0

>  <ddG_score>  (1) 
-8.0

>  <test_score>  (1) 
42

>  <inchi_postera>  (2) 
InChI=1S/C34H36FN5O4/c1-21-18-40(28-17-36-16-23-8-2-3-9-25(23)28)32(44)34(21)20-39(30(42)26-12-11-24(35)14-27(26)34)19-33(13-5-10-29(41)38-33)31(43)37-15-22-6-4-7-22/h2-3,8-9,11-12,14,16-17,21-22H,4-7,10,13,15,18-20H2,1H3,(H,37,43)(H,38,41)/t21-,33-,34-/m0/s1

>  <inchikey_postera>  (2) 
JMNOTFGOXKKJGR-UWCXYBNISA-N

>  <cLogP_postera>  (2) 
3.71

>  <MW_postera>  (2) 
597.28

>  <TPSA_postera>  (2) 
111.71

>  <HBD_postera>  (2) 
2

>  <HBA_postera>  (2) 
5

>  <rotatable_bonds_postera>  (2) 
6

>  <fraction_sp3_postera>  (2) 
0.44

>  <alerts_postera>  (2) 


>  <sa_alert_level_postera>  (2) 
high

>  <bb_lead_time_weeks_postera>  (2) 
None

>  <bb_price_range_USD_per_g_postera>  (2) 
None

>  <scr_lead_time_weeks_postera>  (2) 
None

>  <scr_price_range_USD_per_mg_postera>  (2) 
None

>  <_postera>  (2) 
None

>  <chemspace_postera>  (2) 
None

>  <emolecules_postera>  (2) 
None

>  <enamine_postera>  (2) 
None

>  <enamine_EU-US_postera>  (2) 
None

>  <generic_postera>  (2) 
None

>  <mcule_postera>  (2) 
None

>  <molport_postera>  (2) 
None

>  <pubchem_postera>  (2) 
None

>  <sigma_postera>  (2) 
None

>  <surechembl_postera>  (2) 
None

>  <wuxi_postera>  (2) 
None

>  <Docking_posit_clash_RMSD>  (2) 
25.904843261806146

>  <Docking_posit_clash_POSIT>  (2) 
0.5

>  <Docking_posit_clash_Chemgauss4>  (2) 
-6.181787014007568

>  <Docking_posit_clash_clash>  (2) 
1


